Version 4
SHEET 1 880 680
SYMBOL EXTRA\\Philips\\NMOSFET\\2N7000 192 176 R0
SYMATTR InstName U1
