Version 4
SHEET 1 880 680
WIRE 96 160 32 160
WIRE 336 160 160 160
WIRE 448 160 336 160
WIRE 336 176 336 160
WIRE 448 192 448 160
WIRE 32 208 32 160
WIRE 32 288 32 272
WIRE 32 304 32 288
WIRE 336 304 336 240
WIRE 336 304 32 304
WIRE 448 304 448 272
WIRE 448 304 336 304
FLAG 32 304 0
SYMBOL voltage 32 192 R0
WINDOW 123 0 0 Left 0
WINDOW 39 0 0 Left 0
SYMATTR InstName V1
SYMATTR Value SINE(0 5 50)
SYMBOL res 432 176 R0
SYMATTR InstName R1
SYMATTR Value 20k
SYMBOL diode 96 176 R270
WINDOW 0 32 32 VTop 2
WINDOW 3 0 32 VBottom 2
SYMATTR InstName D1
SYMATTR Value 1N914
SYMBOL polcap 320 176 R0
WINDOW 3 24 56 Left 2
SYMATTR Value 22µ
SYMATTR InstName C1
SYMATTR Description Capacitor
SYMATTR Type cap
SYMATTR SpiceLine V=16 Irms=3.72678 Rser=0.018 Lser=0 mfg="KEMET" pn="A700D226M016ATE018" type="Al electrolytic"
TEXT 0 328 Left 2 !.tran 100m
