Version 4
SHEET 1 880 680
WIRE 128 144 64 144
WIRE 224 144 192 144
WIRE 288 144 224 144
WIRE 400 144 352 144
WIRE 64 224 64 144
WIRE 224 224 224 144
WIRE 400 224 400 144
WIRE 64 352 64 304
WIRE 224 352 224 288
WIRE 224 352 64 352
WIRE 400 352 400 288
WIRE 400 352 224 352
FLAG 64 352 0
SYMBOL voltage 64 208 R0
WINDOW 3 24 96 Invisible 2
WINDOW 123 0 0 Left 0
WINDOW 39 0 0 Left 0
SYMATTR InstName V1
SYMATTR Value SINE(0 5 1k)
SYMBOL polcap 192 128 R90
WINDOW 0 0 32 VBottom 2
WINDOW 3 32 32 VTop 2
SYMATTR InstName C1
SYMATTR Value 22µ
SYMATTR Description Capacitor
SYMATTR Type cap
SYMATTR SpiceLine V=2.5 Irms=3.72678 Rser=0.018 Lser=0
SYMBOL diode 240 288 R180
WINDOW 0 24 64 Left 2
WINDOW 3 24 0 Left 2
SYMATTR InstName D1
SYMATTR Value 1N914
SYMBOL diode 288 160 R270
WINDOW 0 32 32 VTop 2
WINDOW 3 0 32 VBottom 2
SYMATTR InstName D2
SYMATTR Value 1N914
SYMBOL polcap 384 224 R0
WINDOW 3 24 56 Left 2
SYMATTR InstName C2
SYMATTR Value 22µ
SYMATTR Description Capacitor
SYMATTR Type cap
SYMATTR SpiceLine V=6.3 Irms=4.08248 Rser=0.015 Lser=0
TEXT 30 362 Left 2 !.tran 100m
