Version 4
SHEET 1 880 680
WIRE 144 112 -128 112
WIRE 272 112 224 112
WIRE -128 128 -128 112
WIRE 272 176 272 112
WIRE 336 176 272 176
WIRE 160 240 16 240
WIRE 272 240 272 176
WIRE 272 240 240 240
WIRE 16 288 16 240
FLAG -128 208 0
FLAG 16 368 0
FLAG 336 176 OUT
IOPIN 336 176 Out
SYMBOL res 240 96 R90
WINDOW 0 0 56 VBottom 2
WINDOW 3 32 56 VTop 2
SYMATTR InstName R1
SYMATTR Value 50k
SYMBOL res 256 224 R90
WINDOW 0 0 56 VBottom 2
WINDOW 3 32 56 VTop 2
SYMATTR InstName R2
SYMATTR Value 50k
SYMBOL voltage 16 272 R0
WINDOW 3 24 96 Invisible 2
WINDOW 123 0 0 Left 0
WINDOW 39 0 0 Left 0
SYMATTR Value SINE(0.5 0.5 5k)
SYMATTR InstName V1
SYMBOL voltage -128 112 R0
WINDOW 3 24 96 Invisible 2
WINDOW 123 0 0 Left 0
WINDOW 39 0 0 Left 0
SYMATTR Value PULSE(0 1 0 0.000001u 0.000001u 0.5m 1m)
SYMATTR InstName V2
TEXT -160 392 Left 2 !.tran 10m
